mol28
 OpenBabel09242210053D

 51 53  0  0  1  0  0  0  0  0999 V2000
   -0.2640   -0.6590    0.6150 C   0  0  0  0  0  0  0  0  0  0  0  0
   -1.5630    0.5220    0.5410 S   0  0  0  0  0  0  0  0  0  0  0  0
   -2.6660   -0.7590    0.0960 C   0  0  0  0  0  0  0  0  0  0  0  0
   -1.9700   -1.9430    0.0440 C   0  0  0  0  0  0  0  0  0  0  0  0
   -0.6340   -1.8850    0.3330 N   0  0  0  0  0  0  0  0  0  0  0  0
    1.9600   -0.0910   -0.4020 C   0  0  0  0  0  0  0  0  0  0  0  0
    1.1670   -0.2990    0.9110 C   0  0  1  0  0  0  0  0  0  0  0  0
    1.3370    0.9270    1.8260 C   0  0  0  0  0  0  0  0  0  0  0  0
    2.8190    1.3850    1.8570 C   0  0  0  0  0  0  0  0  0  0  0  0
    3.6810    0.3510    1.2840 N   0  0  0  0  0  0  0  0  0  0  0  0
    4.6530    0.5550    1.4880 H   0  0  0  0  0  0  0  0  0  0  0  0
    3.5010    0.1030   -0.1610 C   0  0  0  0  0  0  0  0  0  0  0  0
    4.2400   -1.2390   -0.5200 C   0  0  0  0  0  0  0  0  0  0  0  0
    3.6980   -2.4490    0.2650 C   0  0  0  0  0  0  0  0  0  0  0  0
    5.7720   -1.2040   -0.3590 C   0  0  0  0  0  0  0  0  0  0  0  0
    3.9510    1.3390   -1.0480 C   0  0  0  0  0  0  0  0  0  0  0  0
    5.2570    2.0500   -0.6440 C   0  0  0  0  0  0  0  0  0  0  0  0
    3.9530    1.0370   -2.5560 C   0  0  0  0  0  0  0  0  0  0  0  0
   -4.0800   -0.4880   -0.1440 C   0  0  0  0  0  0  0  0  0  0  0  0
   -4.4720    0.7910   -0.0240 N   0  0  0  0  0  0  0  0  0  0  0  0
   -5.7730    1.0520   -0.2430 C   0  0  0  0  0  0  0  0  0  0  0  0
   -6.7260    0.1620   -0.5880 N   0  0  0  0  0  0  0  0  0  0  0  0
   -6.3070   -1.1010   -0.6990 C   0  0  0  0  0  0  0  0  0  0  0  0
   -4.9930   -1.5010   -0.4850 C   0  0  0  0  0  0  0  0  0  0  0  0
   -6.1740    2.3440   -0.0760 N   0  0  0  0  0  0  0  0  0  0  0  0
   -5.4590    3.0510   -0.0260 H   0  0  0  0  0  0  0  0  0  0  0  0
   -7.0830    2.5940   -0.4310 H   0  0  0  0  0  0  0  0  0  0  0  0
   -2.4326   -2.8324   -0.2011 H   0  0  0  0  0  0  0  0  0  0  0  0
    1.8172   -0.9480   -1.0266 H   0  0  0  0  0  0  0  0  0  0  0  0
    1.5917    0.8023   -0.8617 H   0  0  0  0  0  0  0  0  0  0  0  0
    1.5622   -1.1322    1.4536 H   0  0  0  0  0  0  0  0  0  0  0  0
    1.0274    0.6711    2.8177 H   0  0  0  0  0  0  0  0  0  0  0  0
    0.7370    1.7270    1.4453 H   0  0  0  0  0  0  0  0  0  0  0  0
    2.9223    2.2857    1.2887 H   0  0  0  0  0  0  0  0  0  0  0  0
    3.1093    1.5575    2.8723 H   0  0  0  0  0  0  0  0  0  0  0  0
    4.0260   -1.3508   -1.5624 H   0  0  0  0  0  0  0  0  0  0  0  0
    3.9174   -2.3267    1.3051 H   0  0  0  0  0  0  0  0  0  0  0  0
    4.1615   -3.3439   -0.0944 H   0  0  0  0  0  0  0  0  0  0  0  0
    2.6388   -2.5167    0.1294 H   0  0  0  0  0  0  0  0  0  0  0  0
    6.0194   -1.0926    0.6760 H   0  0  0  0  0  0  0  0  0  0  0  0
    6.1699   -0.3787   -0.9116 H   0  0  0  0  0  0  0  0  0  0  0  0
    6.1905   -2.1164   -0.7296 H   0  0  0  0  0  0  0  0  0  0  0  0
    3.1761    2.0438   -0.8297 H   0  0  0  0  0  0  0  0  0  0  0  0
    6.0884    1.4036   -0.8336 H   0  0  0  0  0  0  0  0  0  0  0  0
    5.2238    2.2921    0.3977 H   0  0  0  0  0  0  0  0  0  0  0  0
    5.3657    2.9480   -1.2156 H   0  0  0  0  0  0  0  0  0  0  0  0
    4.7271    0.3323   -2.7776 H   0  0  0  0  0  0  0  0  0  0  0  0
    4.1274    1.9414   -3.1006 H   0  0  0  0  0  0  0  0  0  0  0  0
    3.0059    0.6272   -2.8389 H   0  0  0  0  0  0  0  0  0  0  0  0
   -6.9985   -1.8217   -0.9586 H   0  0  0  0  0  0  0  0  0  0  0  0
   -4.7036   -2.4878   -0.5717 H   0  0  0  0  0  0  0  0  0  0  0  0
  1  7  1  0  0  0  0
  2  1  1  0  0  0  0
  3  2  1  0  0  0  0
  4  3  2  0  0  0  0
  4  5  1  0  0  0  0
  4 28  1  0  0  0  0
  5  1  2  0  0  0  0
  6 12  1  0  0  0  0
  6  7  1  0  0  0  0
  6 29  1  0  0  0  0
  6 30  1  0  0  0  0
  7  8  1  0  0  0  0
  7 31  1  1  0  0  0
  8  9  1  0  0  0  0
  8 32  1  0  0  0  0
  8 33  1  0  0  0  0
  9 34  1  0  0  0  0
  9 35  1  0  0  0  0
 10 11  1  0  0  0  0
 10  9  1  0  0  0  0
 12 10  1  0  0  0  0
 13 15  1  0  0  0  0
 13 12  1  0  0  0  0
 13 14  1  0  0  0  0
 13 36  1  0  0  0  0
 14 37  1  0  0  0  0
 14 38  1  0  0  0  0
 14 39  1  0  0  0  0
 15 40  1  0  0  0  0
 15 41  1  0  0  0  0
 15 42  1  0  0  0  0
 16 17  1  0  0  0  0
 16 12  1  0  0  0  0
 16 43  1  0  0  0  0
 17 44  1  0  0  0  0
 17 45  1  0  0  0  0
 17 46  1  0  0  0  0
 18 16  1  0  0  0  0
 18 47  1  0  0  0  0
 18 48  1  0  0  0  0
 18 49  1  0  0  0  0
 19 20  1  0  0  0  0
 19  3  1  0  0  0  0
 21 25  1  0  0  0  0
 21 20  2  0  0  0  0
 22 21  1  0  0  0  0
 23 22  2  0  0  0  0
 23 24  1  0  0  0  0
 23 50  1  0  0  0  0
 24 19  2  0  0  0  0
 24 51  1  0  0  0  0
 25 26  1  0  0  0  0
 27 25  1  0  0  0  0
M  END
>  <REMARK>
  Name = mol28.pdb
                            x       y       z     vdW  Elec       q    Type
                         _______ _______ _______ _____ _____    ______ ____

>  <TORSDO>
F 5

$$$$
mol33
 OpenBabel09242210053D

 45 47  0  0  1  0  0  0  0  0999 V2000
    0.1240   -0.7910    0.5080 C   0  0  0  0  0  0  0  0  0  0  0  0
   -1.1230    0.4470    0.4000 S   0  0  0  0  0  0  0  0  0  0  0  0
   -2.3000   -0.8070    0.0900 C   0  0  0  0  0  0  0  0  0  0  0  0
   -1.6630   -2.0240    0.0970 C   0  0  0  0  0  0  0  0  0  0  0  0
   -0.3140   -2.0130    0.3290 N   0  0  0  0  0  0  0  0  0  0  0  0
    2.2380    0.1110   -0.5450 C   0  0  0  0  0  0  0  0  0  0  0  0
    1.5760   -0.4650    0.7260 C   0  0  1  0  0  0  0  0  0  0  0  0
    1.8370    0.4900    1.9200 C   0  0  0  0  0  0  0  0  0  0  0  0
    3.1920    1.2080    1.7500 C   0  0  0  0  0  0  0  0  0  0  0  0
    4.1110    0.3350    1.0210 N   0  0  0  0  0  0  0  0  0  0  0  0
    5.0700    0.6480    1.1340 H   0  0  0  0  0  0  0  0  0  0  0  0
    3.7910    0.1640   -0.4140 C   0  0  0  0  0  0  0  0  0  0  0  0
    4.3670   -1.2030   -0.8900 C   0  0  0  0  0  0  0  0  0  0  0  0
    5.7370   -1.6190   -0.3390 C   0  0  0  0  0  0  0  0  0  0  0  0
    4.2780    1.3520   -1.2940 C   0  0  0  0  0  0  0  0  0  0  0  0
    5.7880    1.5710   -1.4330 C   0  0  0  0  0  0  0  0  0  0  0  0
   -3.7100   -0.4850   -0.1170 C   0  0  0  0  0  0  0  0  0  0  0  0
   -4.0370    0.8160   -0.0720 N   0  0  0  0  0  0  0  0  0  0  0  0
   -5.3320    1.1240   -0.2620 C   0  0  0  0  0  0  0  0  0  0  0  0
   -6.3370    0.2600   -0.5100 N   0  0  0  0  0  0  0  0  0  0  0  0
   -5.9810   -1.0260   -0.5490 C   0  0  0  0  0  0  0  0  0  0  0  0
   -4.6790   -1.4740   -0.3550 C   0  0  0  0  0  0  0  0  0  0  0  0
   -5.6670    2.4430   -0.1710 N   0  0  0  0  0  0  0  0  0  0  0  0
   -4.9190    3.1160   -0.1950 H   0  0  0  0  0  0  0  0  0  0  0  0
   -6.5770    2.7110   -0.5090 H   0  0  0  0  0  0  0  0  0  0  0  0
   -2.1768   -2.9043   -0.0649 H   0  0  0  0  0  0  0  0  0  0  0  0
    1.9815   -0.5071   -1.3799 H   0  0  0  0  0  0  0  0  0  0  0  0
    1.8810    1.1102   -0.6831 H   0  0  0  0  0  0  0  0  0  0  0  0
    2.0251   -1.4057    0.9674 H   0  0  0  0  0  0  0  0  0  0  0  0
    1.8498   -0.0763    2.8278 H   0  0  0  0  0  0  0  0  0  0  0  0
    1.0583    1.2230    1.9541 H   0  0  0  0  0  0  0  0  0  0  0  0
    3.0497    2.1156    1.2014 H   0  0  0  0  0  0  0  0  0  0  0  0
    3.6007    1.4367    2.7121 H   0  0  0  0  0  0  0  0  0  0  0  0
    4.4476   -1.1641   -1.9562 H   0  0  0  0  0  0  0  0  0  0  0  0
    3.6847   -1.9354   -0.5119 H   0  0  0  0  0  0  0  0  0  0  0  0
    6.4816   -0.9285   -0.6761 H   0  0  0  0  0  0  0  0  0  0  0  0
    5.9781   -2.6016   -0.6872 H   0  0  0  0  0  0  0  0  0  0  0  0
    5.7068   -1.6170    0.7306 H   0  0  0  0  0  0  0  0  0  0  0  0
    3.8863    1.2007   -2.2782 H   0  0  0  0  0  0  0  0  0  0  0  0
    3.9267    2.2246   -0.7840 H   0  0  0  0  0  0  0  0  0  0  0  0
    6.2246    0.7350   -1.9383 H   0  0  0  0  0  0  0  0  0  0  0  0
    6.2252    1.6685   -0.4613 H   0  0  0  0  0  0  0  0  0  0  0  0
    5.9687    2.4625   -1.9965 H   0  0  0  0  0  0  0  0  0  0  0  0
   -6.7144   -1.7282   -0.7338 H   0  0  0  0  0  0  0  0  0  0  0  0
   -4.4379   -2.4770   -0.3842 H   0  0  0  0  0  0  0  0  0  0  0  0
  1  7  1  0  0  0  0
  2  1  1  0  0  0  0
  3  4  2  0  0  0  0
  3  2  1  0  0  0  0
  4  5  1  0  0  0  0
  4 26  1  0  0  0  0
  5  1  2  0  0  0  0
  6 12  1  0  0  0  0
  6  7  1  0  0  0  0
  6 27  1  0  0  0  0
  6 28  1  0  0  0  0
  7  8  1  0  0  0  0
  7 29  1  1  0  0  0
  8 30  1  0  0  0  0
  8 31  1  0  0  0  0
  9  8  1  0  0  0  0
  9 32  1  0  0  0  0
  9 33  1  0  0  0  0
 10 11  1  0  0  0  0
 10  9  1  0  0  0  0
 12 10  1  0  0  0  0
 13 12  1  0  0  0  0
 13 14  1  0  0  0  0
 13 34  1  0  0  0  0
 13 35  1  0  0  0  0
 14 36  1  0  0  0  0
 14 37  1  0  0  0  0
 14 38  1  0  0  0  0
 15 12  1  0  0  0  0
 15 39  1  0  0  0  0
 15 40  1  0  0  0  0
 16 15  1  0  0  0  0
 16 41  1  0  0  0  0
 16 42  1  0  0  0  0
 16 43  1  0  0  0  0
 17 18  1  0  0  0  0
 17  3  1  0  0  0  0
 19 23  1  0  0  0  0
 19 18  2  0  0  0  0
 20 19  1  0  0  0  0
 21 20  2  0  0  0  0
 21 22  1  0  0  0  0
 21 44  1  0  0  0  0
 22 17  2  0  0  0  0
 22 45  1  0  0  0  0
 24 23  1  0  0  0  0
 25 23  1  0  0  0  0
M  END
>  <REMARK>
  Name = mol33.pdb
                            x       y       z     vdW  Elec       q    Type
                         _______ _______ _______ _____ _____    ______ ____

>  <TORSDO>
F 5

$$$$
